!
!  ROMS/TOMS Dynamic Iceshelf Model Parameters.
!
!git $Id$
!========================================================= Hernan G. Arango ===
!  Copyright (c) 2002-2021 The ROMS/TOMS Group                                !
!    Licensed under a MIT/X style license                                     !
!    See License_ROMS.txt                                                     !
!==============================================================================
!                                                                             !
! Input parameters can be entered in ANY order, provided that the parameter   !
! KEYWORD (usually, upper case) is typed correctly followed by "="  or "=="   !
! symbols. Any comment lines are allowed and must begin with an exclamation   !
! mark (!) in column one.  Comments may  appear to the right of a parameter   !
! specification to improve documentation.  Comments will be ignored  during   !
! reading.  Blank lines are also allowed and ignored. Continuation lines in   !
! a parameter specification are allowed and must be preceded by a backslash   !
! (\).  In some instances, more than one value is required for a parameter.   !
! If fewer values are provided, the  last value  is assigned for the entire   !
! parameter array.  The multiplication symbol (*),  without blank spaces in   !
! between, is allowed for a parameter specification.  For example, in a two   !
! grids nested application:                                                   !
!                                                                             !
!    AKT_BAK == 2*1.0d-6  2*5.0d-6              ! m2/s                        !
!                                                                             !
! indicates that the first two entries of array AKT_BAK,  in fortran column-  !
! major order, will have the same value of "1.0d-6" for grid 1,  whereas the  !
! next two entries will have the same value of "5.0d-6" for grid 2.           !
!                                                                             !
! In multiple levels of nesting and/or multiple connected domains  step-ups,  !
! "Ngrids" entries are expected for some of these parameters.  In such case,  !
! the order of the entries for a parameter is extremely important.  It  must  !
! follow the same order (1:Ngrids) as in the state variable declaration. The  !
! USER may follow the above guidelines for specifying his/her values.  These  !
! parameters are marked by "==" plural symbol after the KEYWORD.              !
!                                                                             !
!==============================================================================
!
!------------------------------------------------------------------------------
! Iceshelf model output switch.
!------------------------------------------------------------------------------

! Logical switches (TRUE/FALSE) to activate writing of iceshelf layer
! parameters into HISTORY output files, [1:Ngrids] values expected.

 Hout(idDraft)    == F  ! draft       time-dependent iceshelf draft
 Hout(idismr)     == T  ! ismr        ice-shelf melt rate
 Hout(idssflxSOF) == F  ! ssflxSOF    surface salt flux correction due to SOF
 Hout(idshflxSOF) == F  ! shflxSOF    surface heat flux correction due to SOF
 Hout(idisTb)     == F  ! isTb        temperature at ice-shelf base
 Hout(idisSb)     == F  ! isSb        salinity at ice-shelf base

! Logical switches (TRUE/FALSE) to activate writing of iceshelf layer
! parameters into AVERAGE output files, [1:Ngrids] values expected.

 Aout(idismr)     == T   ! ismr       ice-shelf melt rate
 Aout(idssflxSOF) == T   ! ssflxSOF   surface salt flux correction due to SOF
 Aout(idshflxSOF) == T   ! shflxSOF   surface heat flux correction due to SOF
